.title RandomNetwork
.subckt SubCir1 in out
BSubCir1 in out i=((v(in)-v(out))>0) ? (116.04n*(v(in)-v(out))**2 + 139.48n*(v(in)-v(out))) : (-116.04n*(v(in)-v(out))**2 + 139.48n*(v(in)-v(out)) )
RshuntG1 in 0 100GOhm
RshuntG2 out 0 100GOhm
.ends SubCir1

.subckt SubCir2 in out
BSubCir2 in out i=((v(in)-v(out))>0) ? (109.89n*(v(in)-v(out))**2 + 158.21n*(v(in)-v(out))) : (-109.89n*(v(in)-v(out))**2 + 158.21n*(v(in)-v(out)) )
RshuntG1 in 0 100GOhm
RshuntG2 out 0 100GOhm
.ends SubCir2

.subckt SubCir3 in out
BSubCir3 in out i=((v(in)-v(out))>0) ? (169.06n*(v(in)-v(out))**2 + 662.67n*(v(in)-v(out))) : (-169.06n*(v(in)-v(out))**2 + 662.67n*(v(in)-v(out)) )
RshuntG1 in 0 100GOhm
RshuntG2 out 0 100GOhm
.ends SubCir3

.subckt SubCir4 in out
BSubCir4 in out i=((v(in)-v(out))>0) ? (84.78n*(v(in)-v(out))**2 + 171.86n*(v(in)-v(out))) : (-84.78n*(v(in)-v(out))**2 + 171.86n*(v(in)-v(out)) )
RshuntG1 in 0 100GOhm
RshuntG2 out 0 100GOhm
.ends SubCir4

.subckt SubCir5 in out
BSubCir5 in out i=((v(in)-v(out))>0) ? (156.96n*(v(in)-v(out))**2 + 197.73n*(v(in)-v(out))) : (-156.96n*(v(in)-v(out))**2 + 197.73n*(v(in)-v(out)) )
RshuntG1 in 0 100GOhm
RshuntG2 out 0 100GOhm
.ends SubCir5

.subckt SubCir6 in out
BSubCir6 in out i=((v(in)-v(out))>0) ? (142.76n*(v(in)-v(out))**2 + 201.61n*(v(in)-v(out))) : (-142.76n*(v(in)-v(out))**2 + 201.61n*(v(in)-v(out)) )
RshuntG1 in 0 100GOhm
RshuntG2 out 0 100GOhm
.ends SubCir6

.subckt SubCir7 in out
BSubCir7 in out i=((v(in)-v(out))>0) ? (61.39n*(v(in)-v(out))**2 + 597.77n*(v(in)-v(out))) : (-61.39n*(v(in)-v(out))**2 + 597.77n*(v(in)-v(out)) )
RshuntG1 in 0 100GOhm
RshuntG2 out 0 100GOhm
.ends SubCir7

.subckt SubCir8 in out
BSubCir8 in out i=((v(in)-v(out))>0) ? (92.73n*(v(in)-v(out))**2 + 72.14n*(v(in)-v(out))) : (-92.73n*(v(in)-v(out))**2 + 72.14n*(v(in)-v(out)) )
RshuntG1 in 0 100GOhm
RshuntG2 out 0 100GOhm
.ends SubCir8

.subckt SubCir9 in out
BSubCir9 in out i=((v(in)-v(out))>0) ? (128.48n*(v(in)-v(out))**2 + 170.41n*(v(in)-v(out))) : (-128.48n*(v(in)-v(out))**2 + 170.41n*(v(in)-v(out)) )
RshuntG1 in 0 100GOhm
RshuntG2 out 0 100GOhm
.ends SubCir9

.subckt SubCir10 in out
BSubCir10 in out i=((v(in)-v(out))>0) ? (100.59n*(v(in)-v(out))**2 + 284.86n*(v(in)-v(out))) : (-100.59n*(v(in)-v(out))**2 + 284.86n*(v(in)-v(out)) )
RshuntG1 in 0 100GOhm
RshuntG2 out 0 100GOhm
.ends SubCir10

.subckt SubCir11 in out
BSubCir11 in out i=((v(in)-v(out))>0) ? (79.48n*(v(in)-v(out))**2 + 545.65n*(v(in)-v(out))) : (-79.48n*(v(in)-v(out))**2 + 545.65n*(v(in)-v(out)) )
RshuntG1 in 0 100GOhm
RshuntG2 out 0 100GOhm
.ends SubCir11

.subckt SubCir12 in out
BSubCir12 in out i=((v(in)-v(out))>0) ? (146.18n*(v(in)-v(out))**2 + 393.97n*(v(in)-v(out))) : (-146.18n*(v(in)-v(out))**2 + 393.97n*(v(in)-v(out)) )
RshuntG1 in 0 100GOhm
RshuntG2 out 0 100GOhm
.ends SubCir12

.subckt SubCir13 in out
BSubCir13 in out i=((v(in)-v(out))>0) ? (130.63n*(v(in)-v(out))**2 + 584.66n*(v(in)-v(out))) : (-130.63n*(v(in)-v(out))**2 + 584.66n*(v(in)-v(out)) )
RshuntG1 in 0 100GOhm
RshuntG2 out 0 100GOhm
.ends SubCir13

.subckt SubCir14 in out
BSubCir14 in out i=((v(in)-v(out))>0) ? (110.37n*(v(in)-v(out))**2 + 870.21n*(v(in)-v(out))) : (-110.37n*(v(in)-v(out))**2 + 870.21n*(v(in)-v(out)) )
RshuntG1 in 0 100GOhm
RshuntG2 out 0 100GOhm
.ends SubCir14

.subckt SubCir15 in out
BSubCir15 in out i=((v(in)-v(out))>0) ? (116.99n*(v(in)-v(out))**2 + 234.32n*(v(in)-v(out))) : (-116.99n*(v(in)-v(out))**2 + 234.32n*(v(in)-v(out)) )
RshuntG1 in 0 100GOhm
RshuntG2 out 0 100GOhm
.ends SubCir15

.subckt SubCir16 in out
BSubCir16 in out i=((v(in)-v(out))>0) ? (160.36n*(v(in)-v(out))**2 + 898.93n*(v(in)-v(out))) : (-160.36n*(v(in)-v(out))**2 + 898.93n*(v(in)-v(out)) )
RshuntG1 in 0 100GOhm
RshuntG2 out 0 100GOhm
.ends SubCir16

.subckt SubCir17 in out
BSubCir17 in out i=((v(in)-v(out))>0) ? (141.21n*(v(in)-v(out))**2 + 750.33n*(v(in)-v(out))) : (-141.21n*(v(in)-v(out))**2 + 750.33n*(v(in)-v(out)) )
RshuntG1 in 0 100GOhm
RshuntG2 out 0 100GOhm
.ends SubCir17

.subckt SubCir18 in out
BSubCir18 in out i=((v(in)-v(out))>0) ? (62.23n*(v(in)-v(out))**2 + 829.58n*(v(in)-v(out))) : (-62.23n*(v(in)-v(out))**2 + 829.58n*(v(in)-v(out)) )
RshuntG1 in 0 100GOhm
RshuntG2 out 0 100GOhm
.ends SubCir18

.subckt SubCir19 in out
BSubCir19 in out i=((v(in)-v(out))>0) ? (54.71n*(v(in)-v(out))**2 + 764.68n*(v(in)-v(out))) : (-54.71n*(v(in)-v(out))**2 + 764.68n*(v(in)-v(out)) )
RshuntG1 in 0 100GOhm
RshuntG2 out 0 100GOhm
.ends SubCir19

.subckt SubCir20 in out
BSubCir20 in out i=((v(in)-v(out))>0) ? (163.67n*(v(in)-v(out))**2 + 788.16n*(v(in)-v(out))) : (-163.67n*(v(in)-v(out))**2 + 788.16n*(v(in)-v(out)) )
RshuntG1 in 0 100GOhm
RshuntG2 out 0 100GOhm
.ends SubCir20

.subckt SubCir21 in out
BSubCir21 in out i=((v(in)-v(out))>0) ? (77.47n*(v(in)-v(out))**2 + 766.87n*(v(in)-v(out))) : (-77.47n*(v(in)-v(out))**2 + 766.87n*(v(in)-v(out)) )
RshuntG1 in 0 100GOhm
RshuntG2 out 0 100GOhm
.ends SubCir21

.subckt SubCir22 in out
BSubCir22 in out i=((v(in)-v(out))>0) ? (122.93n*(v(in)-v(out))**2 + 506.97n*(v(in)-v(out))) : (-122.93n*(v(in)-v(out))**2 + 506.97n*(v(in)-v(out)) )
RshuntG1 in 0 100GOhm
RshuntG2 out 0 100GOhm
.ends SubCir22

.subckt SubCir23 in out
BSubCir23 in out i=((v(in)-v(out))>0) ? (102.13n*(v(in)-v(out))**2 + 570.32n*(v(in)-v(out))) : (-102.13n*(v(in)-v(out))**2 + 570.32n*(v(in)-v(out)) )
RshuntG1 in 0 100GOhm
RshuntG2 out 0 100GOhm
.ends SubCir23

.subckt SubCir24 in out
BSubCir24 in out i=((v(in)-v(out))>0) ? (42.84n*(v(in)-v(out))**2 + 103.01n*(v(in)-v(out))) : (-42.84n*(v(in)-v(out))**2 + 103.01n*(v(in)-v(out)) )
RshuntG1 in 0 100GOhm
RshuntG2 out 0 100GOhm
.ends SubCir24

.subckt SubCir25 in out
BSubCir25 in out i=((v(in)-v(out))>0) ? (110.25n*(v(in)-v(out))**2 + 914.15n*(v(in)-v(out))) : (-110.25n*(v(in)-v(out))**2 + 914.15n*(v(in)-v(out)) )
RshuntG1 in 0 100GOhm
RshuntG2 out 0 100GOhm
.ends SubCir25

.subckt SubCir26 in out
BSubCir26 in out i=((v(in)-v(out))>0) ? (93.84n*(v(in)-v(out))**2 + 859.50n*(v(in)-v(out))) : (-93.84n*(v(in)-v(out))**2 + 859.50n*(v(in)-v(out)) )
RshuntG1 in 0 100GOhm
RshuntG2 out 0 100GOhm
.ends SubCir26

.subckt SubCir27 in out
BSubCir27 in out i=((v(in)-v(out))>0) ? (57.59n*(v(in)-v(out))**2 + 172.67n*(v(in)-v(out))) : (-57.59n*(v(in)-v(out))**2 + 172.67n*(v(in)-v(out)) )
RshuntG1 in 0 100GOhm
RshuntG2 out 0 100GOhm
.ends SubCir27

.subckt SubCir28 in out
BSubCir28 in out i=((v(in)-v(out))>0) ? (121.57n*(v(in)-v(out))**2 + 822.32n*(v(in)-v(out))) : (-121.57n*(v(in)-v(out))**2 + 822.32n*(v(in)-v(out)) )
RshuntG1 in 0 100GOhm
RshuntG2 out 0 100GOhm
.ends SubCir28

.subckt SubCir29 in out
BSubCir29 in out i=((v(in)-v(out))>0) ? (67.09n*(v(in)-v(out))**2 + 529.62n*(v(in)-v(out))) : (-67.09n*(v(in)-v(out))**2 + 529.62n*(v(in)-v(out)) )
RshuntG1 in 0 100GOhm
RshuntG2 out 0 100GOhm
.ends SubCir29

.subckt SubCir30 in out
BSubCir30 in out i=((v(in)-v(out))>0) ? (62.29n*(v(in)-v(out))**2 + 395.55n*(v(in)-v(out))) : (-62.29n*(v(in)-v(out))**2 + 395.55n*(v(in)-v(out)) )
RshuntG1 in 0 100GOhm
RshuntG2 out 0 100GOhm
.ends SubCir30

.subckt SubCir31 in out
BSubCir31 in out i=((v(in)-v(out))>0) ? (92.95n*(v(in)-v(out))**2 + 864.73n*(v(in)-v(out))) : (-92.95n*(v(in)-v(out))**2 + 864.73n*(v(in)-v(out)) )
RshuntG1 in 0 100GOhm
RshuntG2 out 0 100GOhm
.ends SubCir31

.subckt SubCir32 in out
BSubCir32 in out i=((v(in)-v(out))>0) ? (63.99n*(v(in)-v(out))**2 + 659.79n*(v(in)-v(out))) : (-63.99n*(v(in)-v(out))**2 + 659.79n*(v(in)-v(out)) )
RshuntG1 in 0 100GOhm
RshuntG2 out 0 100GOhm
.ends SubCir32

.subckt SubCir33 in out
BSubCir33 in out i=((v(in)-v(out))>0) ? (94.72n*(v(in)-v(out))**2 + 645.87n*(v(in)-v(out))) : (-94.72n*(v(in)-v(out))**2 + 645.87n*(v(in)-v(out)) )
RshuntG1 in 0 100GOhm
RshuntG2 out 0 100GOhm
.ends SubCir33

.subckt SubCir34 in out
BSubCir34 in out i=((v(in)-v(out))>0) ? (140.54n*(v(in)-v(out))**2 + 147.55n*(v(in)-v(out))) : (-140.54n*(v(in)-v(out))**2 + 147.55n*(v(in)-v(out)) )
RshuntG1 in 0 100GOhm
RshuntG2 out 0 100GOhm
.ends SubCir34

.subckt SubCir35 in out
BSubCir35 in out i=((v(in)-v(out))>0) ? (58.45n*(v(in)-v(out))**2 + 856.68n*(v(in)-v(out))) : (-58.45n*(v(in)-v(out))**2 + 856.68n*(v(in)-v(out)) )
RshuntG1 in 0 100GOhm
RshuntG2 out 0 100GOhm
.ends SubCir35

.subckt SubCir36 in out
BSubCir36 in out i=((v(in)-v(out))>0) ? (169.99n*(v(in)-v(out))**2 + 327.53n*(v(in)-v(out))) : (-169.99n*(v(in)-v(out))**2 + 327.53n*(v(in)-v(out)) )
RshuntG1 in 0 100GOhm
RshuntG2 out 0 100GOhm
.ends SubCir36

.subckt SubCir37 in out
BSubCir37 in out i=((v(in)-v(out))>0) ? (60.59n*(v(in)-v(out))**2 + 81.83n*(v(in)-v(out))) : (-60.59n*(v(in)-v(out))**2 + 81.83n*(v(in)-v(out)) )
RshuntG1 in 0 100GOhm
RshuntG2 out 0 100GOhm
.ends SubCir37

.subckt SubCir38 in out
BSubCir38 in out i=((v(in)-v(out))>0) ? (44.14n*(v(in)-v(out))**2 + 548.95n*(v(in)-v(out))) : (-44.14n*(v(in)-v(out))**2 + 548.95n*(v(in)-v(out)) )
RshuntG1 in 0 100GOhm
RshuntG2 out 0 100GOhm
.ends SubCir38

.subckt SubCir39 in out
BSubCir39 in out i=((v(in)-v(out))>0) ? (136.48n*(v(in)-v(out))**2 + 730.47n*(v(in)-v(out))) : (-136.48n*(v(in)-v(out))**2 + 730.47n*(v(in)-v(out)) )
RshuntG1 in 0 100GOhm
RshuntG2 out 0 100GOhm
.ends SubCir39

.subckt SubCir40 in out
BSubCir40 in out i=((v(in)-v(out))>0) ? (59.72n*(v(in)-v(out))**2 + 318.49n*(v(in)-v(out))) : (-59.72n*(v(in)-v(out))**2 + 318.49n*(v(in)-v(out)) )
RshuntG1 in 0 100GOhm
RshuntG2 out 0 100GOhm
.ends SubCir40

.subckt SubCir41 in out
BSubCir41 in out i=((v(in)-v(out))>0) ? (140.90n*(v(in)-v(out))**2 + 107.85n*(v(in)-v(out))) : (-140.90n*(v(in)-v(out))**2 + 107.85n*(v(in)-v(out)) )
RshuntG1 in 0 100GOhm
RshuntG2 out 0 100GOhm
.ends SubCir41

.subckt SubCir42 in out
BSubCir42 in out i=((v(in)-v(out))>0) ? (165.78n*(v(in)-v(out))**2 + 516.96n*(v(in)-v(out))) : (-165.78n*(v(in)-v(out))**2 + 516.96n*(v(in)-v(out)) )
RshuntG1 in 0 100GOhm
RshuntG2 out 0 100GOhm
.ends SubCir42

.subckt SubCir43 in out
BSubCir43 in out i=((v(in)-v(out))>0) ? (89.82n*(v(in)-v(out))**2 + 391.43n*(v(in)-v(out))) : (-89.82n*(v(in)-v(out))**2 + 391.43n*(v(in)-v(out)) )
RshuntG1 in 0 100GOhm
RshuntG2 out 0 100GOhm
.ends SubCir43

.subckt SubCir44 in out
BSubCir44 in out i=((v(in)-v(out))>0) ? (123.84n*(v(in)-v(out))**2 + 222.17n*(v(in)-v(out))) : (-123.84n*(v(in)-v(out))**2 + 222.17n*(v(in)-v(out)) )
RshuntG1 in 0 100GOhm
RshuntG2 out 0 100GOhm
.ends SubCir44

.subckt SubCir45 in out
BSubCir45 in out i=((v(in)-v(out))>0) ? (163.22n*(v(in)-v(out))**2 + 715.54n*(v(in)-v(out))) : (-163.22n*(v(in)-v(out))**2 + 715.54n*(v(in)-v(out)) )
RshuntG1 in 0 100GOhm
RshuntG2 out 0 100GOhm
.ends SubCir45
Rin1_contact in1_conn n1 200Ohm
Rin2_contact in2_conn n2 200Ohm
Rin3_contact in3_conn n3 200Ohm
Rin4_contact in4_conn n4 200Ohm
Rin5_contact in5_conn n5 200Ohm
Rin6_contact in6_conn n6 200Ohm
Rop1_contact op1_conn n10 0Ohm
Rop2_contact op2_conn n9 0Ohm
Rop3_contact op3_conn n8 0Ohm
Rop4_contact op4_conn n7 0Ohm
Rop1_shunt n10 0 70kOhm
Rop2_shunt n9 0 70kOhm
Rop3_shunt n8 0 70kOhm
Rop4_shunt n7 0 70kOhm
X1 n1 n2 SubCir1
X2 n1 n3 SubCir2
X3 n1 n4 SubCir3
X4 n1 n5 SubCir4
X5 n1 n6 SubCir5
X6 n1 n7 SubCir6
X7 n1 n8 SubCir7
X8 n1 n9 SubCir8
X9 n1 n10 SubCir9
X10 n2 n3 SubCir10
X11 n2 n4 SubCir11
X12 n2 n5 SubCir12
X13 n2 n6 SubCir13
X14 n2 n7 SubCir14
X15 n2 n8 SubCir15
X16 n2 n9 SubCir16
X17 n2 n10 SubCir17
X18 n3 n4 SubCir18
X19 n3 n5 SubCir19
X20 n3 n6 SubCir20
X21 n3 n7 SubCir21
X22 n3 n8 SubCir22
X23 n3 n9 SubCir23
X24 n3 n10 SubCir24
X25 n4 n5 SubCir25
X26 n4 n6 SubCir26
X27 n4 n7 SubCir27
X28 n4 n8 SubCir28
X29 n4 n9 SubCir29
X30 n4 n10 SubCir30
X31 n5 n6 SubCir31
X32 n5 n7 SubCir32
X33 n5 n8 SubCir33
X34 n5 n9 SubCir34
X35 n5 n10 SubCir35
X36 n6 n7 SubCir36
X37 n6 n8 SubCir37
X38 n6 n9 SubCir38
X39 n6 n10 SubCir39
X40 n7 n8 SubCir40
X41 n7 n9 SubCir41
X42 n7 n10 SubCir42
X43 n8 n9 SubCir43
X44 n8 n10 SubCir44
X45 n9 n10 SubCir45
.model DefualtDiode D (BV=30V IBV=0.0001V IS=4.352nA N=1.906 RS=0.6458Ohm)
