.title Five node B-source Resistor network
.subckt SubCir1 in out
D1 mid out DefualtDiode
R1 in mid 5.3674kOhm
.ends SubCir1

.subckt SubCir2 in out
D1 mid out DefualtDiode
R1 in mid 8.2092kOhm
.ends SubCir2

.subckt SubCir3 in out
D1 mid in DefualtDiode
R1 mid out 0.5872kOhm
.ends SubCir3

.subckt SubCir4 in out
D1 mid in DefualtDiode
R1 mid out 6.9565kOhm
.ends SubCir4

.subckt SubCir5 in out
D1 mid out DefualtDiode
R1 in mid 5.6465kOhm
.ends SubCir5

.subckt SubCir6 in out
D1 mid in DefualtDiode
R1 mid out 3.1827kOhm
.ends SubCir6

.subckt SubCir7 in out
D1 mid in DefualtDiode
R1 mid out 3.0673kOhm
.ends SubCir7

.subckt SubCir8 in out
D1 mid in DefualtDiode
R1 mid out 1.809kOhm
.ends SubCir8

.subckt SubCir9 in out
D1 mid out DefualtDiode
R1 in mid 7.8934kOhm
.ends SubCir9

.subckt SubCir10 in out
D1 mid out DefualtDiode
R1 in mid 6.487kOhm
.ends SubCir10

.subckt SubCir11 in out
D1 mid in DefualtDiode
R1 mid out 9.5526kOhm
.ends SubCir11

.subckt SubCir12 in out
D1 mid in DefualtDiode
R1 mid out 3.2896kOhm
.ends SubCir12

.subckt SubCir13 in out
D1 mid out DefualtDiode
R1 in mid 4.2462kOhm
.ends SubCir13

.subckt SubCir14 in out
D1 mid in DefualtDiode
R1 mid out 6.6789kOhm
.ends SubCir14

.subckt SubCir15 in out
D1 mid out DefualtDiode
R1 in mid 4.6418kOhm
.ends SubCir15
Vinput1 1 0 2.2803V
Vinput2 2 0 2.5629V
Vinput3 3 0 -1.0316146032584395V
Vinput4 4 0 -0.5049017917664838V
X0 1 2 SubCir1
X1 1 3 SubCir2
X2 1 4 SubCir3
X3 1 5 SubCir4
X4 1 6 SubCir5
X5 2 3 SubCir6
X6 2 4 SubCir7
X7 2 5 SubCir8
X8 2 6 SubCir9
X9 3 4 SubCir10
X10 3 5 SubCir11
X11 3 6 SubCir12
X12 4 5 SubCir13
X13 4 6 SubCir14
X14 5 6 SubCir15
R16 5 0 10kOhm
R17 6 0 10kOhm
.model DefualtDiode D (BV=30V IBV=200uV IS=20uA N=1 RS=0.8mOhm)
