.title Five node B-source Resistor network
Vinput1 1 0 1.9947V
Vinput2 2 0 1.4808V
Vinput3 3 0 0.128V
Vinput4 4 0 0.489V
Vinput5 5 0 3.379V
R0 1 2 4.3165kOhm
R1 1 3 9.2632kOhm
R2 1 4 4.0424kOhm
R3 1 5 7.4208kOhm
R4 1 6 5.1194kOhm
R5 1 7 5.2934kOhm
R6 2 3 2.3823kOhm
R7 2 4 2.1284kOhm
R8 2 5 9.1838kOhm
R9 2 6 3.3343kOhm
R10 2 7 6.2931kOhm
R11 3 4 1.6072kOhm
R12 3 5 4.3603kOhm
R13 3 6 2.7359kOhm
R14 3 7 3.808kOhm
R15 4 5 0.1075kOhm
R16 4 6 7.7049kOhm
R17 4 7 7.4913kOhm
R18 5 6 9.9963kOhm
R19 5 7 5.8196kOhm
R20 6 7 5.485kOhm
R22 6 0 10kOhm
R23 7 0 10kOhm
.model DefualtDiode D (BV=30V IBV=200uV IS=20uA N=1 RS=0.8mOhm)
