.title Five node B-source Resistor network
Vinput1 1 0 1.9947V
Vinput2 2 0 1.4808V
Vinput3 3 0 0.484V
Vinput4 4 0 -0.172V
Vinput5 5 0 4.132V
R0 1 2 5.7129kOhm
R1 1 3 6.3715kOhm
R2 1 4 6.8433kOhm
R3 1 5 1.9722kOhm
R4 1 6 5.3501kOhm
R5 1 7 0.3687kOhm
R6 2 3 0.5468kOhm
R7 2 4 2.7385kOhm
R8 2 5 5.8201kOhm
R9 2 6 4.6847kOhm
R10 2 7 9.6638kOhm
R11 3 4 3.8456kOhm
R12 3 5 2.3366kOhm
R13 3 6 5.6106kOhm
R14 3 7 8.6746kOhm
R15 4 5 9.9865kOhm
R16 4 6 7.0578kOhm
R17 4 7 0.2601kOhm
R18 5 6 3.0161kOhm
R19 5 7 3.1678kOhm
R20 6 7 8.4682kOhm
R22 6 0 10kOhm
R23 7 0 10kOhm
.model DefualtDiode D (BV=30V IBV=200uV IS=20uA N=1 RS=0.8mOhm)
