.title Five node B-source Resistor network
Vinput1 1 0 1.9947V
Vinput2 2 0 1.4808V
Vinput3 3 0 -3.282V
Vinput4 4 0 -3.609V
Vinput5 5 0 0.998V
R0 1 2 6.2511kOhm
R1 1 3 0.7362kOhm
R2 1 4 6.4652kOhm
R3 1 5 2.5744kOhm
R4 1 6 5.9296kOhm
R5 1 7 4.2009kOhm
R6 2 3 4.8109kOhm
R7 2 4 0.2862kOhm
R8 2 5 9.3318kOhm
R9 2 6 4.26kOhm
R10 2 7 4.0771kOhm
R11 3 4 1.5735kOhm
R12 3 5 0.7704kOhm
R13 3 6 8.0245kOhm
R14 3 7 2.3886kOhm
R15 4 5 2.1091kOhm
R16 4 6 5.2748kOhm
R17 4 7 9.6103kOhm
R18 5 6 1.6675kOhm
R19 5 7 9.2896kOhm
R20 6 7 6.5534kOhm
R22 6 0 10kOhm
R23 7 0 10kOhm
.model DefualtDiode D (BV=30V IBV=200uV IS=20uA N=1 RS=0.8mOhm)
