.title Five node B-source Resistor network
Vinput1 1 0 1.9947V
Vinput2 2 0 1.4808V
Vinput3 3 0 -0.292V
Vinput4 4 0 2.236V
Vinput5 5 0 -1.45V
R0 1 2 3.5384kOhm
R1 1 3 1.2524kOhm
R2 1 4 1.3337kOhm
R3 1 5 4.3924kOhm
R4 1 6 8.0557kOhm
R5 1 7 3.818kOhm
R6 2 3 8.7714kOhm
R7 2 4 7.238kOhm
R8 2 5 7.4443kOhm
R9 2 6 7.0008kOhm
R10 2 7 2.3493kOhm
R11 3 4 5.6132kOhm
R12 3 5 7.2428kOhm
R13 3 6 6.8153kOhm
R14 3 7 7.7281kOhm
R15 4 5 3.9201kOhm
R16 4 6 3.2668kOhm
R17 4 7 6.378kOhm
R18 5 6 9.3398kOhm
R19 5 7 9.0239kOhm
R20 6 7 7.9125kOhm
R22 6 0 10kOhm
R23 7 0 10kOhm
.model DefualtDiode D (BV=30V IBV=200uV IS=20uA N=1 RS=0.8mOhm)
