.title Five node B-source Resistor network
Vinput1 1 0 1.9947V
Vinput2 2 0 1.4808V
Vinput3 3 0 4.187V
Vinput4 4 0 2.041V
Vinput5 5 0 -2.213V
R0 1 2 1.0076kOhm
R1 1 3 1.139kOhm
R2 1 4 1.306kOhm
R3 1 5 6.2738kOhm
R4 1 6 3.2766kOhm
R5 1 7 4.2208kOhm
R6 2 3 0.124kOhm
R7 2 4 2.1604kOhm
R8 2 5 6.4303kOhm
R9 2 6 0.6207kOhm
R10 2 7 0.6704kOhm
R11 3 4 9.0369kOhm
R12 3 5 6.9762kOhm
R13 3 6 4.7858kOhm
R14 3 7 8.2002kOhm
R15 4 5 7.7277kOhm
R16 4 6 5.2704kOhm
R17 4 7 1.7448kOhm
R18 5 6 9.384kOhm
R19 5 7 3.7493kOhm
R20 6 7 0.9097kOhm
R22 6 0 10kOhm
R23 7 0 10kOhm
.model DefualtDiode D (BV=30V IBV=200uV IS=20uA N=1 RS=0.8mOhm)
