.title Five node B-source Resistor network
Vinput1 1 0 1.9947V
Vinput2 2 0 1.4808V
Vinput3 3 0 -1.719V
Vinput4 4 0 -2.381V
Vinput5 5 0 4.837V
R0 1 2 3.9361kOhm
R1 1 3 1.9845kOhm
R2 1 4 4.8213kOhm
R3 1 5 3.098kOhm
R4 1 6 8.2165kOhm
R5 1 7 1.5319kOhm
R6 2 3 2.4646kOhm
R7 2 4 0.125kOhm
R8 2 5 3.1047kOhm
R9 2 6 3.7462kOhm
R10 2 7 3.6826kOhm
R11 3 4 4.5171kOhm
R12 3 5 4.3416kOhm
R13 3 6 3.5445kOhm
R14 3 7 7.9832kOhm
R15 4 5 6.9305kOhm
R16 4 6 7.9089kOhm
R17 4 7 7.4438kOhm
R18 5 6 3.9517kOhm
R19 5 7 0.3155kOhm
R20 6 7 1.9945kOhm
R22 6 0 10kOhm
R23 7 0 10kOhm
.model DefualtDiode D (BV=30V IBV=200uV IS=20uA N=1 RS=0.8mOhm)
