.title Five node B-source Resistor network
Vinput1 1 0 1.9947V
Vinput2 2 0 1.4808V
Vinput3 3 0 4.936V
Vinput4 4 0 -1.571V
Vinput5 5 0 -4.447V
R0 1 2 9.2769kOhm
R1 1 3 4.8608kOhm
R2 1 4 0.6876kOhm
R3 1 5 0.9463kOhm
R4 1 6 0.3073kOhm
R5 1 7 5.0972kOhm
R6 2 3 3.3304kOhm
R7 2 4 7.9362kOhm
R8 2 5 6.3834kOhm
R9 2 6 8.7285kOhm
R10 2 7 9.9768kOhm
R11 3 4 1.3993kOhm
R12 3 5 1.3806kOhm
R13 3 6 6.2675kOhm
R14 3 7 0.8286kOhm
R15 4 5 3.3035kOhm
R16 4 6 6.6923kOhm
R17 4 7 8.7406kOhm
R18 5 6 9.4924kOhm
R19 5 7 2.8619kOhm
R20 6 7 8.2612kOhm
R22 6 0 10kOhm
R23 7 0 10kOhm
.model DefualtDiode D (BV=30V IBV=200uV IS=20uA N=1 RS=0.8mOhm)
