.title Five node B-source Resistor network
Vinput1 1 0 1.9947V
Vinput2 2 0 1.4808V
Vinput3 3 0 -4.526V
Vinput4 4 0 0.6V
Vinput5 5 0 -0.091V
R0 1 2 7.157kOhm
R1 1 3 1.0642kOhm
R2 1 4 3.165kOhm
R3 1 5 9.3209kOhm
R4 1 6 2.9697kOhm
R5 1 7 0.9913kOhm
R6 2 3 8.6953kOhm
R7 2 4 2.0294kOhm
R8 2 5 9.3187kOhm
R9 2 6 0.3853kOhm
R10 2 7 2.9879kOhm
R11 3 4 6.6003kOhm
R12 3 5 6.2442kOhm
R13 3 6 8.9167kOhm
R14 3 7 1.5833kOhm
R15 4 5 7.0907kOhm
R16 4 6 4.1166kOhm
R17 4 7 8.821kOhm
R18 5 6 6.3738kOhm
R19 5 7 9.1613kOhm
R20 6 7 6.004kOhm
R22 6 0 10kOhm
R23 7 0 10kOhm
.model DefualtDiode D (BV=30V IBV=200uV IS=20uA N=1 RS=0.8mOhm)
