.title Five node B-source Resistor network
Vinput1 1 0 1.9947V
Vinput2 2 0 1.4808V
Vinput3 3 0 2.939V
Vinput4 4 0 -4.43V
Vinput5 5 0 3.877V
R0 1 2 9.8825kOhm
R1 1 3 6.8906kOhm
R2 1 4 2.2999kOhm
R3 1 5 8.3669kOhm
R4 1 6 4.2023kOhm
R5 1 7 0.5873kOhm
R6 2 3 0.2502kOhm
R7 2 4 8.1494kOhm
R8 2 5 5.2026kOhm
R9 2 6 9.7192kOhm
R10 2 7 5.2831kOhm
R11 3 4 9.9832kOhm
R12 3 5 3.5565kOhm
R13 3 6 3.5003kOhm
R14 3 7 0.9127kOhm
R15 4 5 3.1469kOhm
R16 4 6 4.9296kOhm
R17 4 7 7.1304kOhm
R18 5 6 5.8201kOhm
R19 5 7 4.8989kOhm
R20 6 7 7.5877kOhm
R22 6 0 10kOhm
R23 7 0 10kOhm
.model DefualtDiode D (BV=30V IBV=200uV IS=20uA N=1 RS=0.8mOhm)
