.title Five node B-source Resistor network
Vinput1 1 0 1.9947V
Vinput2 2 0 1.4808V
Vinput3 3 0 3.671V
Vinput4 4 0 3.572V
Vinput5 5 0 1.394V
R0 1 2 8.3012kOhm
R1 1 3 0.1323kOhm
R2 1 4 4.5231kOhm
R3 1 5 5.7866kOhm
R4 1 6 2.0892kOhm
R5 1 7 5.7844kOhm
R6 2 3 6.7992kOhm
R7 2 4 3.5796kOhm
R8 2 5 1.0598kOhm
R9 2 6 5.3769kOhm
R10 2 7 8.9509kOhm
R11 3 4 7.9143kOhm
R12 3 5 5.7372kOhm
R13 3 6 4.1632kOhm
R14 3 7 0.8309kOhm
R15 4 5 5.4352kOhm
R16 4 6 3.5869kOhm
R17 4 7 7.2268kOhm
R18 5 6 5.4832kOhm
R19 5 7 2.4855kOhm
R20 6 7 2.4358kOhm
R22 6 0 10kOhm
R23 7 0 10kOhm
.model DefualtDiode D (BV=30V IBV=200uV IS=20uA N=1 RS=0.8mOhm)
