.title Five node B-source Resistor network
.subckt SubCir1 in out
D1 mid in DefualtDiode
R1 mid out 8.792kOhm
.ends SubCir1

.subckt SubCir2 in out
D1 mid out DefualtDiode
R1 in mid 8.4082kOhm
.ends SubCir2

.subckt SubCir3 in out
D1 mid in DefualtDiode
R1 mid out 8.1895kOhm
.ends SubCir3

.subckt SubCir4 in out
D1 mid in DefualtDiode
R1 mid out 0.1163kOhm
.ends SubCir4

.subckt SubCir5 in out
D1 mid out DefualtDiode
R1 in mid 6.522kOhm
.ends SubCir5

.subckt SubCir6 in out
D1 mid in DefualtDiode
R1 mid out 3.7659kOhm
.ends SubCir6

.subckt SubCir7 in out
D1 mid out DefualtDiode
R1 in mid 2.8112kOhm
.ends SubCir7

.subckt SubCir8 in out
D1 mid in DefualtDiode
R1 mid out 4.2444kOhm
.ends SubCir8

.subckt SubCir9 in out
D1 mid out DefualtDiode
R1 in mid 6.4688kOhm
.ends SubCir9

.subckt SubCir10 in out
D1 mid in DefualtDiode
R1 mid out 6.029kOhm
.ends SubCir10

.subckt SubCir11 in out
D1 mid in DefualtDiode
R1 mid out 2.2911kOhm
.ends SubCir11

.subckt SubCir12 in out
D1 mid in DefualtDiode
R1 mid out 3.6449kOhm
.ends SubCir12

.subckt SubCir13 in out
D1 mid out DefualtDiode
R1 in mid 7.7726kOhm
.ends SubCir13

.subckt SubCir14 in out
D1 mid out DefualtDiode
R1 in mid 5.275kOhm
.ends SubCir14

.subckt SubCir15 in out
D1 mid out DefualtDiode
R1 in mid 5.1874kOhm
.ends SubCir15

.subckt SubCir16 in out
D1 mid out DefualtDiode
R1 in mid 5.4854kOhm
.ends SubCir16

.subckt SubCir17 in out
D1 mid in DefualtDiode
R1 mid out 3.4642kOhm
.ends SubCir17

.subckt SubCir18 in out
D1 mid out DefualtDiode
R1 in mid 3.5908kOhm
.ends SubCir18

.subckt SubCir19 in out
D1 mid in DefualtDiode
R1 mid out 8.4508kOhm
.ends SubCir19

.subckt SubCir20 in out
D1 mid out DefualtDiode
R1 in mid 5.6277kOhm
.ends SubCir20

.subckt SubCir21 in out
D1 mid in DefualtDiode
R1 mid out 5.2892kOhm
.ends SubCir21

.subckt SubCir22 in out
D1 mid in DefualtDiode
R1 mid out 5.7205kOhm
.ends SubCir22

.subckt SubCir23 in out
D1 mid in DefualtDiode
R1 mid out 9.8624kOhm
.ends SubCir23

.subckt SubCir24 in out
D1 mid in DefualtDiode
R1 mid out 0.601kOhm
.ends SubCir24

.subckt SubCir25 in out
D1 mid in DefualtDiode
R1 mid out 6.5426kOhm
.ends SubCir25

.subckt SubCir26 in out
D1 mid out DefualtDiode
R1 in mid 2.8858kOhm
.ends SubCir26

.subckt SubCir27 in out
D1 mid out DefualtDiode
R1 in mid 0.9216kOhm
.ends SubCir27

.subckt SubCir28 in out
D1 mid in DefualtDiode
R1 mid out 2.1212kOhm
.ends SubCir28

.subckt SubCir29 in out
D1 mid in DefualtDiode
R1 mid out 3.961kOhm
.ends SubCir29

.subckt SubCir30 in out
D1 mid in DefualtDiode
R1 mid out 9.1868kOhm
.ends SubCir30

.subckt SubCir31 in out
D1 mid out DefualtDiode
R1 in mid 7.7092kOhm
.ends SubCir31

.subckt SubCir32 in out
D1 mid out DefualtDiode
R1 in mid 3.4649kOhm
.ends SubCir32

.subckt SubCir33 in out
D1 mid out DefualtDiode
R1 in mid 4.7789kOhm
.ends SubCir33

.subckt SubCir34 in out
D1 mid in DefualtDiode
R1 mid out 5.2686kOhm
.ends SubCir34

.subckt SubCir35 in out
D1 mid out DefualtDiode
R1 in mid 9.401kOhm
.ends SubCir35

.subckt SubCir36 in out
D1 mid in DefualtDiode
R1 mid out 8.269kOhm
.ends SubCir36
Vinput1 1 0 -0.22V
Vinput2 2 0 1.44V
Vinput3 3 0 -0.5832V
Vinput4 4 0 -1.485V
Vinput5 5 0 3.529V
Vinput6 6 0 2.379V
Vinput7 7 0 4.287V
X0 1 2 SubCir1
X1 1 3 SubCir2
X2 1 4 SubCir3
X3 1 5 SubCir4
X4 1 6 SubCir5
X5 1 7 SubCir6
X6 1 8 SubCir7
X7 1 9 SubCir8
X8 2 3 SubCir9
X9 2 4 SubCir10
X10 2 5 SubCir11
X11 2 6 SubCir12
X12 2 7 SubCir13
X13 2 8 SubCir14
X14 2 9 SubCir15
X15 3 4 SubCir16
X16 3 5 SubCir17
X17 3 6 SubCir18
X18 3 7 SubCir19
X19 3 8 SubCir20
X20 3 9 SubCir21
X21 4 5 SubCir22
X22 4 6 SubCir23
X23 4 7 SubCir24
X24 4 8 SubCir25
X25 4 9 SubCir26
X26 5 6 SubCir27
X27 5 7 SubCir28
X28 5 8 SubCir29
X29 5 9 SubCir30
X30 6 7 SubCir31
X31 6 8 SubCir32
X32 6 9 SubCir33
X33 7 8 SubCir34
X34 7 9 SubCir35
X35 8 9 SubCir36
R37 8 0 10kOhm
R38 9 0 10kOhm
.model DefualtDiode D (BV=30V IBV=200uV IS=20uA N=1 RS=0.8mOhm)
