.title Five node B-source Resistor network
Vinput1 1 0 3.867V
Vinput2 2 0 0.1491314183397328V
Vinput3 3 0 -3.809V
Vinput4 4 0 -0.1422811617511751V
R0 1 2 8.5688kOhm
R1 1 3 8.1912kOhm
R2 1 4 9.5548kOhm
R3 1 5 2.7922kOhm
R4 1 6 8.1192kOhm
R5 2 3 1.0041kOhm
R6 2 4 8.0311kOhm
R7 2 5 3.729kOhm
R8 2 6 8.4331kOhm
R9 3 4 3.8697kOhm
R10 3 5 4.9492kOhm
R11 3 6 8.8662kOhm
R12 4 5 2.681kOhm
R13 4 6 0.3881kOhm
R14 5 6 2.4772kOhm
R16 5 0 10kOhm
R17 6 0 10kOhm
.model DefualtDiode D (BV=30V IBV=200uV IS=20uA N=1 RS=0.8mOhm)
