.title Five node B-source Resistor network
Vinput1 1 0 -0.08891542651896703V
Vinput2 2 0 0.08790826927418144V
Vinput3 3 0 0.234V
Vinput4 4 0 -4.308V
R0 1 2 6.128kOhm
R1 1 3 6.8768kOhm
R2 1 4 4.0144kOhm
R3 1 5 9.2505kOhm
R4 1 6 5.266kOhm
R5 2 3 0.171kOhm
R6 2 4 7.2301kOhm
R7 2 5 0.185kOhm
R8 2 6 2.5188kOhm
R9 3 4 9.7495kOhm
R10 3 5 0.124kOhm
R11 3 6 5.2626kOhm
R12 4 5 6.5721kOhm
R13 4 6 1.2717kOhm
R14 5 6 3.0648kOhm
R16 5 0 10kOhm
R17 6 0 10kOhm
.model DefualtDiode D (BV=30V IBV=200uV IS=20uA N=1 RS=0.8mOhm)
