.title Five node B-source Resistor network
Vinput1 1 0 0.040672205001745315V
Vinput2 2 0 1.346V
Vinput3 3 0 3.35V
Vinput4 4 0 0.10679226785900559V
R0 1 2 2.9383kOhm
R1 1 3 0.157kOhm
R2 1 4 9.0913kOhm
R3 1 5 7.9658kOhm
R4 1 6 1.731kOhm
R5 2 3 1.5736kOhm
R6 2 4 9.3903kOhm
R7 2 5 2.5458kOhm
R8 2 6 5.5376kOhm
R9 3 4 2.8826kOhm
R10 3 5 8.6442kOhm
R11 3 6 8.0434kOhm
R12 4 5 3.5973kOhm
R13 4 6 5.7845kOhm
R14 5 6 2.6226kOhm
R16 5 0 10kOhm
R17 6 0 10kOhm
.model DefualtDiode D (BV=30V IBV=200uV IS=20uA N=1 RS=0.8mOhm)
