.title Five node B-source Resistor network
Vinput1 1 0 3.283V
Vinput2 2 0 2.557V
Vinput3 3 0 -0.10881135364103292V
Vinput4 4 0 0.3102836319196107V
R0 1 2 4.0507kOhm
R1 1 3 7.6179kOhm
R2 1 4 4.0053kOhm
R3 1 5 7.2146kOhm
R4 1 6 2.9358kOhm
R5 2 3 2.0979kOhm
R6 2 4 1.5488kOhm
R7 2 5 1.5076kOhm
R8 2 6 8.4042kOhm
R9 3 4 2.7481kOhm
R10 3 5 5.0107kOhm
R11 3 6 4.8816kOhm
R12 4 5 5.9869kOhm
R13 4 6 0.3093kOhm
R14 5 6 3.4042kOhm
R16 5 0 10kOhm
R17 6 0 10kOhm
.model DefualtDiode D (BV=30V IBV=200uV IS=20uA N=1 RS=0.8mOhm)
