.title Five node B-source Resistor network
Vinput1 1 0 0.13645436743009792V
Vinput2 2 0 0.34V
Vinput3 3 0 -0.954V
Vinput4 4 0 0.3171209417520471V
R0 1 2 5.1744kOhm
R1 1 3 5.0497kOhm
R2 1 4 5.6114kOhm
R3 1 5 4.9522kOhm
R4 1 6 9.0306kOhm
R5 2 3 1.8628kOhm
R6 2 4 1.0915kOhm
R7 2 5 1.2096kOhm
R8 2 6 0.7656kOhm
R9 3 4 0.8077kOhm
R10 3 5 9.4645kOhm
R11 3 6 6.8674kOhm
R12 4 5 1.8399kOhm
R13 4 6 2.8319kOhm
R14 5 6 1.0391kOhm
R16 5 0 10kOhm
R17 6 0 10kOhm
.model DefualtDiode D (BV=30V IBV=200uV IS=20uA N=1 RS=0.8mOhm)
