.title Five node B-source Resistor network
Vinput1 1 0 -1.8324734999999999V
Vinput2 2 0 0.3329238V
Vinput3 3 0 1.864V
Vinput4 4 0 -3.255V
R0 1 2 4.295kOhm
R1 1 3 0.2235kOhm
R2 1 4 1.8353kOhm
R3 1 5 0.9604kOhm
R4 1 6 1.9164kOhm
R5 2 3 8.465kOhm
R6 2 4 9.6416kOhm
R7 2 5 4.2379kOhm
R8 2 6 4.079kOhm
R9 3 4 7.9022kOhm
R10 3 5 8.187kOhm
R11 3 6 4.5744kOhm
R12 4 5 1.5748kOhm
R13 4 6 3.3626kOhm
R14 5 6 4.2817kOhm
R16 5 0 10kOhm
R17 6 0 10kOhm
.model DefualtDiode D (BV=30V IBV=200uV IS=20uA N=1 RS=0.8mOhm)
