.title Five node B-source Resistor network
Vinput1 1 0 -0.7775823000000001V
Vinput2 2 0 1.6607592V
Vinput3 3 0 -1.445V
Vinput4 4 0 -0.508V
R0 1 2 1.9437kOhm
R1 1 3 7.4701kOhm
R2 1 4 1.3223kOhm
R3 1 5 9.3602kOhm
R4 1 6 7.1388kOhm
R5 2 3 9.4168kOhm
R6 2 4 3.3392kOhm
R7 2 5 3.9873kOhm
R8 2 6 2.2319kOhm
R9 3 4 8.9662kOhm
R10 3 5 0.1205kOhm
R11 3 6 8.4611kOhm
R12 4 5 1.1892kOhm
R13 4 6 3.3663kOhm
R14 5 6 1.0665kOhm
R16 5 0 10kOhm
R17 6 0 10kOhm
.model DefualtDiode D (BV=30V IBV=200uV IS=20uA N=1 RS=0.8mOhm)
