.title Five node B-source Resistor network
Vinput1 1 0 0.533V
Vinput2 2 0 -0.7251354V
Vinput3 3 0 1.6735737V
Vinput4 4 0 -4.36V
R0 1 2 9.4833kOhm
R1 1 3 3.7753kOhm
R2 1 4 5.3977kOhm
R3 1 5 4.8333kOhm
R4 1 6 7.2429kOhm
R5 2 3 0.8089kOhm
R6 2 4 3.8277kOhm
R7 2 5 5.4466kOhm
R8 2 6 6.8451kOhm
R9 3 4 5.8406kOhm
R10 3 5 5.2887kOhm
R11 3 6 9.3545kOhm
R12 4 5 5.472kOhm
R13 4 6 6.1464kOhm
R14 5 6 6.3752kOhm
R16 5 0 10kOhm
R17 6 0 10kOhm
.model DefualtDiode D (BV=30V IBV=200uV IS=20uA N=1 RS=0.8mOhm)
