.title Five node B-source Resistor network
Vinput1 1 0 1.079V
Vinput2 2 0 2.881V
Vinput3 3 0 0.5404310999999999V
Vinput4 4 0 0.0563838V
R0 1 2 0.2515kOhm
R1 1 3 4.2812kOhm
R2 1 4 3.1199kOhm
R3 1 5 5.4546kOhm
R4 1 6 6.6496kOhm
R5 2 3 5.0359kOhm
R6 2 4 5.2991kOhm
R7 2 5 5.732kOhm
R8 2 6 3.4155kOhm
R9 3 4 3.4389kOhm
R10 3 5 7.0414kOhm
R11 3 6 3.3203kOhm
R12 4 5 0.104kOhm
R13 4 6 8.4098kOhm
R14 5 6 1.86kOhm
R16 5 0 10kOhm
R17 6 0 10kOhm
.model DefualtDiode D (BV=30V IBV=200uV IS=20uA N=1 RS=0.8mOhm)
