.title Five node B-source Resistor network
Vinput1 1 0 -3.545V
Vinput2 2 0 2.5629V
Vinput3 3 0 2.2803V
Vinput4 4 0 -4.387V
R0 1 2 8.8329kOhm
R1 1 3 8.5637kOhm
R2 1 4 0.7552kOhm
R3 1 5 1.7255kOhm
R4 1 6 2.1469kOhm
R5 2 3 0.4604kOhm
R6 2 4 8.0086kOhm
R7 2 5 1.271kOhm
R8 2 6 1.4737kOhm
R9 3 4 9.7691kOhm
R10 3 5 4.2899kOhm
R11 3 6 1.9571kOhm
R12 4 5 0.4308kOhm
R13 4 6 0.7023kOhm
R14 5 6 5.435kOhm
R16 5 0 10kOhm
R17 6 0 10kOhm
.model DefualtDiode D (BV=30V IBV=200uV IS=20uA N=1 RS=0.8mOhm)
