.title Five node B-source Resistor network
Vinput1 1 0 3.481V
Vinput2 2 0 2.2803V
Vinput3 3 0 -4.354V
Vinput4 4 0 2.5629V
R0 1 2 6.4062kOhm
R1 1 3 2.2823kOhm
R2 1 4 8.573kOhm
R3 1 5 2.5845kOhm
R4 1 6 2.8646kOhm
R5 2 3 4.8102kOhm
R6 2 4 9.1368kOhm
R7 2 5 3.4631kOhm
R8 2 6 9.7195kOhm
R9 3 4 2.7164kOhm
R10 3 5 2.5405kOhm
R11 3 6 8.1495kOhm
R12 4 5 6.6365kOhm
R13 4 6 5.9442kOhm
R14 5 6 7.8198kOhm
R16 5 0 10kOhm
R17 6 0 10kOhm
.model DefualtDiode D (BV=30V IBV=200uV IS=20uA N=1 RS=0.8mOhm)
