.title Five node B-source Resistor network
Vinput1 1 0 -4.869V
Vinput2 2 0 2.5629V
Vinput3 3 0 2.2803V
Vinput4 4 0 -1.737V
R0 1 2 5.8205kOhm
R1 1 3 5.6097kOhm
R2 1 4 8.9151kOhm
R3 1 5 5.9351kOhm
R4 1 6 2.4667kOhm
R5 2 3 2.5455kOhm
R6 2 4 2.8245kOhm
R7 2 5 1.0563kOhm
R8 2 6 7.298kOhm
R9 3 4 6.0643kOhm
R10 3 5 3.8495kOhm
R11 3 6 2.5274kOhm
R12 4 5 3.613kOhm
R13 4 6 7.3942kOhm
R14 5 6 2.8379kOhm
R16 5 0 10kOhm
R17 6 0 10kOhm
.model DefualtDiode D (BV=30V IBV=200uV IS=20uA N=1 RS=0.8mOhm)
