.title Five node B-source Resistor network
Vinput1 1 0 1.648V
Vinput2 2 0 2.2803V
Vinput3 3 0 2.5629V
Vinput4 4 0 -2.279V
R0 1 2 1.0676kOhm
R1 1 3 0.5293kOhm
R2 1 4 9.5829kOhm
R3 1 5 4.5562kOhm
R4 1 6 6.4021kOhm
R5 2 3 2.3958kOhm
R6 2 4 9.7212kOhm
R7 2 5 6.7086kOhm
R8 2 6 5.4622kOhm
R9 3 4 8.937kOhm
R10 3 5 3.496kOhm
R11 3 6 2.8727kOhm
R12 4 5 0.8771kOhm
R13 4 6 7.4595kOhm
R14 5 6 0.5944kOhm
R16 5 0 10kOhm
R17 6 0 10kOhm
.model DefualtDiode D (BV=30V IBV=200uV IS=20uA N=1 RS=0.8mOhm)
