.title Five node B-source Resistor network
Vinput1 1 0 2.2803V
Vinput2 2 0 3.66V
Vinput3 3 0 0.315V
Vinput4 4 0 2.5629V
R0 1 2 7.6284kOhm
R1 1 3 7.0413kOhm
R2 1 4 0.7241kOhm
R3 1 5 9.287kOhm
R4 1 6 1.1818kOhm
R5 2 3 5.248kOhm
R6 2 4 3.8924kOhm
R7 2 5 7.1884kOhm
R8 2 6 3.0659kOhm
R9 3 4 8.2624kOhm
R10 3 5 3.1058kOhm
R11 3 6 1.5679kOhm
R12 4 5 5.5713kOhm
R13 4 6 0.5542kOhm
R14 5 6 8.8958kOhm
R16 5 0 10kOhm
R17 6 0 10kOhm
.model DefualtDiode D (BV=30V IBV=200uV IS=20uA N=1 RS=0.8mOhm)
